estudo-flupot/asp_completo.out
   =========================================================================
        Programa de Fluxo de Potencia Otimo - FLUPOT - V07.13.04      
                CEPEL - Centro de Pesquisas de Energia Eletrica
   =========================================================================

--------------------------------------------------------------------------------

          ASSOCIACAO UNIDADES LOGICAS | ARQUIVOS | FLUPOT V07.13.04      
--------------------------------------------------------------------------------


     #      Descricao                  Nome do Arquivo
    -- -------------------- --------------------------------------------------
     1 Fpodat               asp_ieee14.fpo          
     2 Savecase - Leitura                           
     3 Rede                 asp_ieee14.pwf          
     4 Completo             saidas\asp_completo.out 
     5 Relat                saidas\asp_relatorio.out 
     6 Sumario              saidas\asp_sumario.out  
     7 Cart                 saidas\asp_cart.dat     
     8 Savecase - Gravacao                          
    12 VarCon               saidas\asp_altera.dat   
  

 * AVISO - Arquivo REDE - Subrotina INIEST:
   Codigo de Execucao "DOPC" desconsiderado.


 * AVISO - Arquivo REDE - Subrotina INIEST:
   Codigo de Execucao "DCTE" desconsiderado.


 * AVISO - Arquivo REDE - Subrotina INIEST:
   Codigo de Execucao "DGER" desconsiderado.


 * AVISO - Arquivo REDE - Subrotina INIEST:
   Codigo de Execucao "DVCO" desconsiderado.


 * AVISO - Arquivo REDE - Subrotina INIEST:
   Codigo de Execucao "DMOT" desconsiderado.


 RELACAO DE BARRAS PV A SEREM OTIMIZADAS

 X-----X----------X
  BARRA  CONTROLE 
 X-----X----------X

      1      
      2      
      3      
      6      
      8      
     12      
     14      

 DADOS DE GERACAO ATIVA

 X-----X---------X-------------------X----X----X
  BARRA   CUSTO      GERACAO ATIVA     No   Fat.
                    MINIMA   MAXIMA   Grpo  Part
 X-----X---------X---------X---------X----X----X
      1    1.000      40.00    250.00   0   0.0
      2    1.000      20.00     60.00   0   0.0
      6    1.000       5.00     40.00   0   0.0
     14    1.000       5.00     50.00   0   0.0
      3    1.000   -9999.00   9999.00   0   0.0
      8    1.000   -9999.00   9999.00   0   0.0
     12    1.000   -9999.00   9999.00   0   0.0

                    EX.2 - ANAREDE V09 - SISTEMA 15 BARRAS-VERSAO GRAFICA



      CASO BASE - ITERACAO   1
      ========================



     Sumario da Funcao Objetivo e das Variaveis

     Funcao Objetivo:

     Minimo numero de controles                   


     Variaveis:

     Potencia ativa gerada         
     Potencia reativa gerada       
     Tap                           
     Tensao em barra PV            
     Tap do trafo do conversor     
     Compensacao estatica reativo  
     Variável de Folga do CER      


     Restricoes Funcionais:

     Fluxo em circuitos (MVA)      


     Tolerancia:  0.010 MW      0.010 Mvar





                            Relatorio de Convergencia

 Iter   Passo     Passo     Parametro    Gap   Residuo   Barra        Função
        Primal   Multipl.   Barreira                     Restr.      Objetivo

     1  0.78E-01  0.88        1.6      3.1       18.         9         0.0    
                                                49.         1       
                                                        FInjeção  0.0    

     2  0.47E-01  0.95E-01    1.5      3.0       22.         1 CirVio  0.0    
                                                45.         1       
                                                        FInjeção  0.0    

     3  0.37E-01  0.14        1.6      3.2       22.         1 CirVio  0.0    
                                                43.         1       
                                                        FInjeção  18.    

     4  0.26E-01  0.62E-01    1.8      3.5       22.         1 CirVio  0.0    
                                                42.         1       
                                                        FInjeção  32.    

     5  0.41E-01  0.10        1.9      3.7       22.         1 CirVio  0.0    
                                                41.         1       
                                                        FInjeção  35.    

     6  0.19E-01  0.83E-01    2.0      4.0       21.         1 CirVio  0.0    
                                                39.         1       
                                                        FInjeção  29.    

     7  0.74E-02  0.11E-01    2.0      4.1       21.         1 CirVio  0.0    
                                                38.         1       
                                                        FInjeção  34.    

     8  0.47E-01  0.38E-02    2.1      4.2       21.         1 CirVio  0.0    
                                                38.         1       
                                                        FInjeção  50.    

     9  0.70E-01  0.27E-01    2.1      4.3       20.         1 CirVio  0.0    
                                                36.         1       
                                                        FInjeção 0.21E+03

    10  0.50E-01  0.21        2.0      4.0       18.         1 CirVio  0.0    
                                                34.         1       
                                                        FInjeção 0.61E+03

    11  0.27E-01  0.30E-01    2.0      4.0       18.         1 CirVio  0.0    
                                                32.         1       
                                                        FInjeção 0.95E+03

    12  0.40E-01  0.10        2.1      4.1       17.         1 CirVio  0.0    
                                                31.         1       
                                                        FInjeção 0.10E+04

    13   1.0      0.78       0.21      2.1       16.         1 CirVio  0.0    
                                                30.         1       
                                                        FInjeção 0.10E+04

    14   1.0      0.92       0.31E-01 0.31      0.96         2         0.0    
                                                2.4         4       
                                                        FInjeção 0.11E+04

    15  0.10      0.66E-01    5.2      10.       5.2         4 CirVio  0.0    
                                                89.         2       
                                                        FInjeção 0.11E+04

    16  0.12      0.55E-01    5.1      10.       5.6         4 CirVio  0.0    
                                                80.         2       
                                                        FInjeção 0.11E+04

    17  0.22      0.22        2.8      5.5       14.         2         0.0    
                                                39.         2       
                                                        FInjeção 0.14E+04

    18  0.86      0.37        2.6      5.1       8.9         2         0.0    
                                                36.        15       
                                                        FInjeção 0.31E+04

    19  0.51      0.24        2.1      4.2       20.         2         0.0    
                                                53.         2       
                                                        FInjeção 0.38E+04

    20  0.12E-01  0.11        2.2      4.4       11.         2         0.0    
                                                26.         2       
                                                        FInjeção 0.36E+04

    21  0.16      0.97       0.96      1.9       11.         2         0.0    
                                                25.         2       
                                                        FInjeção 0.39E+04

    22  0.74      0.48       0.68      1.4       9.0         2         0.0    
                                                21.         2       
                                                        FInjeção 0.38E+04

    23   1.0       1.0       0.57E-01 0.57       9.7         3         0.0    
                                                14.         6       
                                                        FInjeção 0.29E+04

    24   1.0      0.87       0.24E-01 0.24       1.8         3         0.0    
                                                22.         2       
                                                        FInjeção 0.18E+04

    25  0.17      0.92       0.29E-01 0.59E-01   9.7         3         0.0    
                                                35.         2       
                                                        FInjeção 0.31E+03

    26  0.85       1.0       0.28E-02 0.28E-01   8.1         3         0.0    
                                                29.         2       
                                                        FInjeção 0.27E+03

    27  0.62      0.52       0.88E-01 0.88       1.2         3         0.0    
                                                4.8         8       
                                                        FInjeção 0.12E+03

    28  0.55      0.88       0.14E-01 0.14      0.47         3         0.0    
                                                1.8         8       
                                                        FInjeção  53.    

    29  0.13E-02  0.16       0.28E-01 0.55E-01   3.1        14         0.0    
                                                5.0        14       
                                                        FInjeção 0.15E+03

    30  0.48       1.0       0.14E-01 0.28E-01   3.1        14         0.0    
                                                5.0        14       
                                                        FInjeção 0.15E+03

    31  0.87       1.0       0.13E-02 0.13E-01   1.6        14         0.0    
                                                2.7        14       
                                                        FInjeção 0.13E+03

    32  0.18E-01  0.16E-01   0.64E-02 0.13E-01  0.24         3         0.0    
                                               0.61         3       
                                                        FInjeção  55.    

    33  0.58       1.0       0.66E-03 0.66E-02  0.31         3         0.0    
                                                1.8         8       
                                                        FInjeção  52.    

    34  0.46      0.84       0.13E-02 0.25E-02  0.14         3         0.0    
                                                6.2         8       
                                                        FInjeção  28.    

    35  0.38E-01  0.13       0.12E-02 0.25E-02  0.11         3         0.0    
                                                3.3         8       
                                                        FInjeção  19.    

    36  0.60E-01  0.27       0.12E-02 0.23E-02  0.12         3         0.0    
                                                3.2         8       
                                                        FInjeção  16.    

    37  0.15       1.0       0.10E-02 0.20E-02  0.35         1         0.0    
                                                3.0         8       
                                                        FInjeção  12.    

    38  0.95       1.0       0.50E-03 0.93E-03  0.30         1         0.0    
                                                2.5         8       
                                                        FInjeção  9.2    

    39   1.0      0.80       0.50E-03 0.51E-03  0.16E-01     1         0.0    
                                               0.10         8       
                                                        FInjeção  4.3    

    40  0.53E-01  0.27E-01   0.50E-03 0.50E-03   7.7         1 CirVio  0.0    
                                                1.2        12       

    41  0.36       1.0       0.50E-03 0.35E-03   7.7         1 CirVio  0.0    
                                                1.2        12       

    42  0.29E-01  0.32E-01   0.50E-03 0.35E-03   5.1         1 CirVio  0.0    
                                               0.77        12       

    43  0.60      0.11       0.50E-03 0.39E-03   4.9         1 CirVio  0.0    
                                               0.75        12       

    44  0.27       1.0       0.50E-03 0.47E-03   1.9         3         0.0    
                                               0.29         6       

    45  0.96      0.20       0.50E-03 0.41E-03   1.7         3         0.0    
                                               0.26         1       

    46  0.14       1.0       0.50E-03 0.44E-03  0.66         3         0.0    
                                               0.25         2       

    47  0.24E-01  0.15E-02   0.50E-03 0.44E-03  0.62         3         0.0    
                                               0.26         2       

    48   1.0      0.55       0.50E-03 0.78E-03  0.60         3         0.0    
                                               0.26         2       

    49  0.79E-01  0.77       0.50E-03 0.49E-03  0.22E-02     3         0.0    
                                               0.41E-02     3       

    50   1.0       1.0       0.50E-03 0.42E-03  0.14E-01     3         0.0    
                                               0.16E-01     2       

    51  0.91       1.0       0.50E-03 0.40E-03  0.14E-01     3         0.0    
                                               0.16E-01     2       

    52   1.0       1.0       0.50E-03 0.41E-03  0.36E-01     3         0.0    
                                               0.42E-01     2       

    53  0.19       1.0       0.50E-03 0.39E-03  0.86E-02     3         0.0    
                                               0.13E-01     3       

    54   1.0       1.0       0.50E-03 0.41E-03  0.16E-01     3         0.0    
                                               0.22E-01     3       

    55   1.0      0.94       0.50E-03 0.40E-03  0.24E-01     3         0.0    
                                               0.30E-01     2       

    56   1.0       1.0       0.50E-03 0.41E-03  0.24E-01     3         0.0    
                                               0.30E-01     2       

    57   1.0      0.36       0.50E-03 0.40E-03  0.15E-01     3         0.0    
                                               0.19E-01     3       

    58   1.0       1.0       0.50E-03 0.40E-03  0.93E-01     3         0.0    
                                               0.12         3       

    59  0.17      0.72       0.50E-03 0.38E-03  0.85E-01     3         0.0    
                                               0.11         3       

    60   1.0       1.0       0.50E-03 0.41E-03  0.77E-01     3         0.0    
                                               0.10         3       

    61   1.0      0.87       0.50E-03 0.40E-03  0.21E-01     3         0.0    
                                               0.26E-01     3       

    62   1.0       1.0       0.50E-03 0.41E-03  0.21E-01     3         0.0    
                                               0.26E-01     3       

    63   1.0      0.33       0.50E-03 0.40E-03  0.15E-01     3         0.0    
                                               0.19E-01     3       

    64   1.0       1.0       0.50E-03 0.40E-03  0.11         3         0.0    
                                               0.13         2       

    65  0.30E-01  0.20       0.50E-03 0.38E-03  0.11         3         0.0    
                                               0.15         3       

    66   1.0       1.0       0.50E-03 0.41E-03  0.11         3         0.0    
                                               0.15         3       

    67   1.0      0.90       0.50E-03 0.40E-03  0.20E-01     3         0.0    
                                               0.24E-01     3       

    68   1.0       1.0       0.50E-03 0.41E-03  0.20E-01     3         0.0    
                                               0.24E-01     3       

    69   1.0      0.40       0.50E-03 0.40E-03  0.14E-01     3         0.0    
                                               0.18E-01     3       

    70   1.0       1.0       0.50E-03 0.41E-03  0.77E-01     3         0.0    
                                               0.10         3       

    71  0.26       1.0       0.50E-03 0.38E-03  0.63E-01     3         0.0    
                                               0.84E-01     3       

    72   1.0       1.0       0.50E-03 0.41E-03  0.55E-01     3         0.0    
                                               0.71E-01     3       

    73   1.0      0.86       0.50E-03 0.40E-03  0.24E-01     3         0.0    
                                               0.29E-01     2       

    74   1.0       1.0       0.50E-03 0.41E-03  0.24E-01     3         0.0    
                                               0.29E-01     2       

    75   1.0      0.26       0.50E-03 0.40E-03  0.16E-01     3         0.0    
                                               0.20E-01     3       

    76  0.74       1.0       0.50E-03 0.38E-03  0.15         3         0.0    
                                               0.19         2       

    77   1.0      0.59E-01   0.50E-03 0.42E-03  0.24         3         0.0    
                                               0.33         3       

    78  0.17      0.16E-01   0.50E-03 0.58E-03  0.20         3         0.0    
                                               0.28         3       

    79  0.27       1.0       0.53E-03 0.11E-02   2.3         2 CirVio  0.0    
                                                3.0         3       

    80   1.0      0.38       0.50E-03 0.81E-03   1.7         3         0.0    
                                                2.4         3       

    81   1.0      0.74       0.50E-03 0.49E-03  0.18         3         0.0    
                                               0.26         2       

    82  0.75       1.0       0.50E-03 0.39E-03  0.87E-02     8         0.0    
                                               0.13E-01     3       

    83  0.80      0.74       0.50E-03 0.38E-03   1.8         4 CirVio  0.0    
                                               0.16         7       

    84   1.0       1.0       0.50E-03 0.41E-03  0.42         2 CirVio  0.0    
                                               0.61         3       

    85  0.40      0.70       0.50E-03 0.40E-03  0.14E-01     8         0.0    
                                               0.65E-01     7       

    86   1.0       1.0       0.50E-03 0.40E-03   2.8         4 CirVio  0.0    
                                               0.25         7       

    87   1.0      0.92       0.50E-03 0.40E-03  0.67E-01     3         0.0    
                                               0.85E-01     7       

    88   1.0       1.0       0.50E-03 0.41E-03  0.26         3         0.0    
                                               0.32         7       

    89  0.47      0.56       0.50E-03 0.40E-03  0.12         3         0.0    
                                               0.16         7       

    90   1.0       1.0       0.50E-03 0.41E-03   3.8         4 CirVio  0.0    
                                               0.35         7       

    91  0.98      0.67       0.50E-03 0.40E-03  0.10         3         0.0    
                                               0.13         7       

    92   1.0      0.14       0.50E-03 0.41E-03  0.47         3         0.0    
                                               0.61         7       

    93   1.0       1.0       0.50E-03 0.38E-03   11.         4 CirVio  0.0    
                                                2.3         7       

    94   1.0       1.0       0.50E-03 0.40E-03   11.         4 CirVio  0.0    
                                                2.3         7       

    95   1.0       1.0       0.50E-03 0.41E-03  0.17         8         0.0    
                                               0.44         7       

    96   1.0      0.53       0.50E-03 0.40E-03  0.32         3         0.0    
                                               0.41         7       

    97  0.89       1.0       0.50E-03 0.41E-03  0.86E-01     3         0.0    
                                               0.10         7       

    98   1.0       1.0       0.50E-03 0.41E-03   6.6         4 CirVio  0.0    
                                               0.63         7       

    99   1.0      0.74       0.50E-03 0.40E-03  0.15         3         0.0    
                                               0.21         7       

   100   1.0       1.0       0.50E-03 0.45E-03  0.45         3         0.0    
                                               0.59         7       

   101   1.0       1.0       0.50E-03 0.41E-03   3.3         4 CirVio  0.0    
                                                1.2         7       

   102  0.10E-01  0.74E-01   0.50E-03 0.37E-03  0.40         3         0.0    
                                               0.55         7       

   103  0.15E-03  0.51E-02   0.50E-03 0.38E-03  0.43         3         0.0    
                                               0.59         7       

   104  0.38E-03  0.15E-02   0.50E-03 0.34E-03  0.43         3         0.0    
                                               0.59         7       

   105  0.41E-02  0.75E-03   0.50E-03 0.34E-03  0.43         3         0.0    
                                               0.59         7       

   106  0.22E-01  0.37       0.50E-03 0.38E-03  0.43         3         0.0    
                                               0.59         7       

   107  0.39      0.25E-01   0.50E-03 0.36E-03  0.42         3         0.0    
                                               0.58         7       

   108  0.73       1.0       0.50E-03 0.43E-03  0.62         3         0.0    
                                               0.51         7       

   109   1.0       1.0       0.50E-03 0.41E-03   5.8         4 CirVio  0.0    
                                               0.57         7       

   110  0.91E-01  0.11       0.50E-03 0.40E-03  0.15         3         0.0    
                                               0.26         7       

   111   1.0       1.0       0.50E-03 0.40E-03   4.8         4 CirVio  0.0    
                                               0.45         7       

   112  0.69      0.50       0.50E-03 0.40E-03  0.13         3         0.0    
                                               0.18         7       

   113   1.0      0.12       0.50E-03 0.41E-03  0.46         3         0.0    
                                               0.60         7       

   114   1.0       1.0       0.50E-03 0.39E-03   8.9         4 CirVio  0.0    
                                                2.0         7       

   115   1.0       1.0       0.50E-03 0.40E-03   8.9         4 CirVio  0.0    
                                                2.0         7       

   116  0.76      0.91       0.50E-03 0.39E-03  0.17         3         0.0    
                                               0.41         7       

   117   1.0       1.0       0.50E-03 0.49E-03  0.41         3         0.0    
                                               0.60         7       

   118  0.71       1.0       0.50E-03 0.41E-03   19.         4 CirVio  0.0    
                                                3.2         7       

   119   1.0      0.81       0.50E-03 0.42E-03   2.9         4 CirVio  0.0    
                                                1.4         7       

   120  0.52E-01  0.55       0.50E-03 0.35E-03  0.28         3         0.0    
                                               0.59         7       

   121  0.14E-02  0.23E-03   0.50E-03 0.35E-03  0.29         3         0.0    
                                               0.59         7       

   122  0.14E-02  0.29E-01   0.50E-03 0.36E-03  0.30         3         0.0    
                                               0.60         7       

   123  0.49       1.0       0.50E-03 0.46E-03  0.30         3         0.0    
                                               0.60         7       

   124   1.0      0.21       0.50E-03 0.42E-03  0.21         3         0.0    
                                               0.43         7       

   125   1.0       1.0       0.50E-03 0.42E-03   7.0         4 CirVio  0.0    
                                               0.77         7       

   126   1.0       1.0       0.50E-03 0.41E-03  0.12         8         0.0    
                                               0.30         7       

   127   1.0       1.0       0.50E-03 0.41E-03  0.12E-02     3         0.0    
                                               0.26E-02     7       


     Variaveis no limite :

      Potencia ativa gerada             1
      Potencia reativa gerada           2
      Tap                               1



     SUMARIO DO CASO

     SHUNT   TOTAL =                          14.6 Mvar 

     CARGA   TOTAL  =      358.9 MW          -10.9 Mvar

     GERACAO TOTAL  =      369.8 MW           -0.6 Mvar (      64.2  ,     -64.7 )

     INJECAO EQUIV  =        0.0 MW            0.0 Mvar

     INJ.  ALOCADA  =        0.0 MW            0.0 Mvar (       0.0  ,       0.0 )

     SHUNT ALOCADO  =                          0.0 Mvar (       0.0  ,       0.0 )

     POT.  REJEIT.  =        0.0 MW            0.0 Mvar

     SINC. ALOCADO  =                          0.0 Mvar (       0.0  ,       0.0 )

     SHUNT CHAVEADO =                          0.0 Mvar (       0.0  ,       0.0 )

     PERDA   TOTAL  =       10.9 MW           25.0 Mvar

     C.SERIE ALOC.  =        0.00 %           0.00 Mvar

     CARREG. TOTAL  =       0.00 MW           0.00 Mvar

     PEDAGIO        =       0.00 MW           0.00 Mvar

     COMP. ESTATICA =                          0.0 Mvar 

     SOMATORIO DAS FUNCOES OBJETIVO, PARTE ATIVA   =             0.00

     SOMATORIO DAS FUNCOES OBJETIVO, PARTE REATIVA =             0.00





     RELATORIO DE GRANDEZAS NO LIMITE (Ordenado do mais critico até o menos critico)


     X-----  BARRA  -----X----------  GRANDEZA  -----------X------ VALOR LIMITE ------X-- VALOR MULTIPLICADOR --X

          2 BARRA02--138     Potencia reativa gerada                 50.00  SUP                  0.687E-02

          8 BARRA08---33     Potencia reativa gerada                -20.00  INF                  0.642E-04

          6 BARRA06---66     Potencia ativa gerada                   40.00  SUP                   0.00    

        1     5 ->     6     Tap                                    0.9000  INF                   0.00    



     RELATORIO DOS CONTROLES DESATIVADOS

    -----------------------------------------
       BARRA         TENSAO         TENSAO
                  ESPECIFICADA       FINAL
    -----------------------------------------

           2         1.0400         0.9799
           8         0.9500         0.9350

 *** CONVERGENCIA ALCANCADA ***


  -*-  RELATORIOS FORAM GERADOS -*-

